* DRB081L-20 D model
* Date: 2008/10/02
.MODEL DRB081L-20 D
+ IS=74.423E-6
+ N=1.0624
+ RS=4.7448E-3
+ IKF=.74655
+ XTI=2
+ EG=.57
+ CJO=1.0374E-9
+ M=.58406
+ VJ=.46343
+ ISR=13.610E-6
+ BV=25
+ TT=5.2000E-9
